  Page 1                                    Thu Jun 22 12:31:37 2023

  ******************************************************************
  *                           E P A N E T                          *
  *                   Hydraulic and Water Quality                  *
  *                   Analysis for Pipe Networks                   *
  *                         Version 2.2                            *
  ******************************************************************
  
  Analysis begun Thu Jun 22 12:31:37 2023

   
  Hydraulic Status:
  -----------------------------------------------------------------------
     0:00:00: Balanced after 6 trials
     0:00:00: Reservoir 15 is emptying
     0:00:00: Reservoir 43 is emptying
     0:00:00: Reservoir 65 is emptying
   
     1:00:00: Balanced after 1 trials
   
     2:00:00: Balanced after 4 trials
   
     3:00:00: Balanced after 1 trials
   
     4:00:00: Balanced after 1 trials
   
     5:00:00: Balanced after 1 trials
   
     6:00:00: Balanced after 4 trials
   
     7:00:00: Balanced after 1 trials
   
     8:00:00: Balanced after 3 trials
   
     9:00:00: Balanced after 1 trials
   
    10:00:00: Balanced after 2 trials
   
    11:00:00: Balanced after 1 trials
   
    12:00:00: Balanced after 3 trials
   
    13:00:00: Balanced after 1 trials
   
    14:00:00: Balanced after 1 trials
   
    15:00:00: Balanced after 1 trials
   
    16:00:00: Balanced after 3 trials
   
    17:00:00: Balanced after 1 trials
   
    18:00:00: Balanced after 3 trials
   
    19:00:00: Balanced after 1 trials
   
    20:00:00: Balanced after 4 trials
   
    21:00:00: Balanced after 4 trials
   
    22:00:00: Balanced after 1 trials
   
    23:00:00: Balanced after 1 trials
   
    24:00:00: Balanced after 1 trials
   
  Analysis ended Thu Jun 22 12:31:37 2023
